resultados/Relatorios/107/107-report.txt
February 20, 2024


relatorio do sistema 107

solucao do fluxo de potencia via metodo do fluxo de potencia direto (Canizares, 1993)

opcoes de controle ativadas: Nenhum controle ativo!

opcoes de relatorio ativadas: RBAR 



vv relatorio de convergencia vv

 * * * * SISTEMA DIVERGENTE (extrapolação de número máximo de iterações) * * * * 

Ponto de Maximo Carregamento: 0.004136
Autovalores: [ 1.15378407e-02  1.46504075e-02  1.06836862e-02  1.86411709e-01
  1.26083668e-02  9.19103027e-03  2.11028040e-02  2.10618201e-02
  1.07093615e-02  1.42838444e-02  1.60106863e-02  1.82766200e-02
  1.63246006e-02  1.61965203e-02  1.69200490e-02  2.21799530e-02
  1.73617393e-02  2.01088716e-02  1.22150017e-02  1.15181058e-02
  1.45431396e-02  1.55228702e-02  1.58736305e-02  5.77359436e-03
  1.07256312e-02  1.06604732e-02  9.92337352e-03  1.01736162e-02
  9.10281080e-03  9.41129892e-03  1.65755372e-02  9.25075391e-03
  6.30230145e-02  8.53187589e-03  9.08279507e-03  7.14949916e-03
  9.40716540e-03  8.12561487e-03  7.98341839e-03  1.07905807e-02
  7.21514442e-03  9.42508829e-03  1.06620694e-02  8.15250464e-03
  7.98112846e-03  1.07791385e-02  8.96700493e-03  8.97071851e-03
  9.00989259e-03  6.27955348e-02  5.76775867e-02  5.99846944e-02
  2.82905594e-02  6.18231527e-02  5.68347507e-02  5.95589940e-02
  6.00660968e-02  5.95141476e-02  5.99407822e-02  3.61252326e-02
  5.85407335e-02  5.77993509e-02  5.87928232e-02  6.39546714e-02
  6.33678328e-02  5.86080902e-02  5.77962274e-02  6.18312486e-02
  6.24359189e-02  4.03226863e-02  2.55255403e-02  7.14863507e-02
  3.82394145e-02  2.38119191e-02  1.26107672e-01  1.47786048e-01
  1.62552720e-01  6.66664613e-02  2.02073272e-02  6.71409658e-02
  5.83360122e-02  5.83542893e-02  2.03244580e-01  1.63259080e-02
  1.60779807e-02  5.94234627e-02  1.09401844e-01  1.43829901e-01
  1.45193508e-01  1.46112949e-01  1.76890469e-01  1.73358673e-01
  1.73628354e-01  1.87480172e-01  2.06812498e-01  2.25182479e-01
  2.19057409e-01  2.30344766e-01  1.84749057e-01  1.74314936e-01
  1.49040904e-01  1.76742413e-01  1.90367732e-01  1.87392656e-01
  1.89057187e-01  1.86318606e-01 -3.40026736e-03  3.86278471e-04
 -7.86419433e-04 -1.71012109e-03 -4.56216351e-03 -3.16113288e-03
 -2.84466893e-03 -1.67399457e-03 -8.96101078e-03 -3.68848007e-03
 -3.03935233e-03  1.97931870e-04  2.66892701e-04 -3.08416701e-04
 -1.25256126e-03 -2.50785943e-03  1.79225601e-03  6.92288723e-04
  9.85686804e-04  3.89966379e-03  3.60274199e-03  2.96665729e-03
  2.66774801e-03  8.06379842e-03  3.03159227e-03  1.87865914e-02
  2.69871851e-03  2.97449268e-03  8.78842577e-04  3.72063620e-04
  4.04484634e-04  4.90501664e-04  4.45735370e-04  5.08167103e-04
  2.65571738e-04  2.72975833e-04 -3.48537808e-02 -3.54243485e-03
 -3.05459400e-02  1.12268166e-03  1.20823024e-03 -4.50767337e-04
  3.57790611e-04 -3.17572161e-02  1.70115068e-03  1.80991076e-03
 -4.73825912e-04 -3.60209610e-03 -4.58515467e-03 -3.66643113e-02
 -4.06682042e-02  2.62837496e-02 -3.72477193e-02 -4.93170292e-02
  1.07057106e-01  1.10819958e-01  1.45333347e-01  3.08596641e-02
 -4.46309816e-02  2.31742513e-02 -6.99952052e-04  4.52056870e-03
  1.65351951e-01 -2.72610399e-03 -2.92025285e-03  1.32535164e-03
  1.71505051e-02  8.16328376e-03  1.06075665e-02  3.25512771e-03
  2.12458703e-03  3.86803780e-03  6.92074547e-03  6.25707478e-03
  6.79205338e-03  5.27969368e-03  2.65219221e-03  1.09536565e-02
  2.55911465e-03  1.57121611e-03  1.30810407e-03  1.71298780e-03]
Iteracoes: 31

vv relatorio de barras vv area 1 vv

|          BARRA           |         TENSAO       |        GERACAO      |         CARGA       |   SHUNT  |
| NUM |     NOME     |  T  |    MOD    |    ANG   |    MW    |   MVAr   |    MW    |   MVAr   |    MVAr  |
----------------------------------------------------------------------------------------------------------
| 12  | LCBARRET-4GR |  1  |   1.000   |  -28.32  | 299.299  | -68.238  |  0.000   |  0.000   |  0.000   |
----------------------------------------------------------------------------------------------------------
| 16  | FURNAS---5GR |  1  |   1.000   |  -32.29  | 798.232  | 274.033  |  0.000   |  0.000   |  0.000   |
----------------------------------------------------------------------------------------------------------
| 18  | ITUMBIAR-6GR |  2  |   1.020   |  -24.00  | 1301.324 | -307.994 |  0.000   |  0.000   |  0.000   |
----------------------------------------------------------------------------------------------------------
| 20  | MARIMBON-5GR |  1  |   1.010   |  -25.64  | 897.963  |  8.299   |  0.000   |  0.000   |  0.000   |
----------------------------------------------------------------------------------------------------------
| 22  | M.MOR.A--3GR |  1  |   1.000   |  -24.32  | 149.521  |  9.704   |  0.000   |  0.000   |  0.000   |
----------------------------------------------------------------------------------------------------------
| 35  | CORUMBA--2GR |  1  |   1.000   |  -28.03  | 199.546  | -47.417  |  0.000   |  0.000   |  0.000   |
----------------------------------------------------------------------------------------------------------
| 48  | IBIUNA---4CS |  1  |   1.000   |  -55.35  |  0.044   | 810.985  |  0.000   |  0.000   |  0.000   |
----------------------------------------------------------------------------------------------------------
| 86  | IBIUNA---345 |  0  |   0.942   |  -55.35  |  0.206   |  0.000   |  66.427  |  1.208   |  0.000   |
----------------------------------------------------------------------------------------------------------
| 100 | MARIMBON-500 |  0  |   1.015   |  -32.00  |  0.012   |  0.032   |  0.000   |  0.000   |  0.000   |
----------------------------------------------------------------------------------------------------------

|          BARRA           |         TENSAO       |        GERACAO      |         CARGA       |   SHUNT  |
| NUM |     NOME     |  T  |    MOD    |    ANG   |    MW    |   MVAr   |    MW    |   MVAr   |    MVAr  |
----------------------------------------------------------------------------------------------------------
| 101 | ARARAQUA-500 |  0  |   0.953   |  -42.68  |  0.032   |  0.022   |  0.000   |  0.000   | -181.734 |
----------------------------------------------------------------------------------------------------------
| 102 | POCOS----500 |  0  |   0.910   |  -52.39  |  0.062   |  -0.081  |  0.000   |  0.000   | -82.788  |
----------------------------------------------------------------------------------------------------------
| 103 | CAMPINAS-500 |  0  |   0.894   |  -54.25  |  0.085   |  0.007   |  0.000   |  0.000   |  0.000   |
----------------------------------------------------------------------------------------------------------
| 104 | C.PAULIS-500 |  0  |   0.866   |  -65.43  |  2.167   |  0.456   | 915.890  | 236.521  |  0.000   |
----------------------------------------------------------------------------------------------------------
| 106 | ADRIANO--500 |  0  |   0.854   |  -66.52  |  0.043   |  -0.127  |  0.000   |  0.000   | -72.955  |
----------------------------------------------------------------------------------------------------------
| 120 | P.CALDAS-345 |  0  |   0.922   |  -50.61  |  0.462   |  0.208   | 181.165  |  90.583  |  0.000   |
----------------------------------------------------------------------------------------------------------
| 122 | IBIUNA---500 |  0  |   0.865   |  -54.58  |  0.610   |  0.140   | 201.294  |  38.246  |  0.000   |
----------------------------------------------------------------------------------------------------------
| 123 | CAMPINAS-345 |  0  |   0.871   |  -57.70  |  1.019   |  0.434   | 452.913  | 176.133  |  0.000   |
----------------------------------------------------------------------------------------------------------
| 126 | GUARULHOS345 |  0  |   0.937   |  -55.61  |  0.716   |  0.197   | 291.877  |  95.615  |  0.000   |
----------------------------------------------------------------------------------------------------------
| 131 | M.MORAES-345 |  0  |   1.000   |  -31.91  |  0.022   |  0.040   |  0.000   |  0.000   |  0.000   |
----------------------------------------------------------------------------------------------------------

|          BARRA           |         TENSAO       |        GERACAO      |         CARGA       |   SHUNT  |
| NUM |     NOME     |  T  |    MOD    |    ANG   |    MW    |   MVAr   |    MW    |   MVAr   |    MVAr  |
----------------------------------------------------------------------------------------------------------
| 134 | LBARRETO-345 |  0  |   1.009   |  -30.59  |  -0.006  |  0.012   |  0.000   |  0.000   |  0.000   |
----------------------------------------------------------------------------------------------------------
| 136 | FURNAS---345 |  0  |   0.966   |  -39.58  |  0.134   |  0.007   |  54.350  |  23.149  |  0.000   |
----------------------------------------------------------------------------------------------------------
| 138 | ITUTINGA-345 |  0  |   0.893   |  -53.61  |  0.233   |  0.068   |  72.466  |  34.220  |  0.000   |
----------------------------------------------------------------------------------------------------------
| 140 | ADRIANO--345 |  0  |   0.830   |  -67.90  |  1.708   |  0.497   | 704.531  | 251.618  |  0.000   |
----------------------------------------------------------------------------------------------------------
| 210 | ITUMBIARA500 |  0  |   1.044   |  -28.67  |  0.109   |  0.076   |  0.000   |  0.000   |  0.000   |
----------------------------------------------------------------------------------------------------------
| 213 | MARIMBON-345 |  0  |   1.021   |  -32.07  |  0.240   |  0.157   |  93.602  |  39.252  |  0.000   |
----------------------------------------------------------------------------------------------------------
| 216 | PCOLOMBIA345 |  0  |   1.033   |  -30.97  |  0.210   |  0.153   |  53.343  |  25.162  |  0.000   |
----------------------------------------------------------------------------------------------------------
| 217 | ITUMBIARA345 |  0  |   1.049   |  -33.31  |  0.995   |  0.182   | 366.356  |  58.375  |  0.000   |
----------------------------------------------------------------------------------------------------------
| 218 | BANDEIRA-345 |  0  |   1.022   |  -41.29  |  1.548   |  0.525   | 603.883  | 201.294  |  0.000   |
----------------------------------------------------------------------------------------------------------
| 219 | B.SUL----345 |  0  |   1.025   |  -40.28  |  0.160   |  0.065   |  0.000   |  0.000   |  0.000   |
----------------------------------------------------------------------------------------------------------

|          BARRA           |         TENSAO       |        GERACAO      |         CARGA       |   SHUNT  |
| NUM |     NOME     |  T  |    MOD    |    ANG   |    MW    |   MVAr   |    MW    |   MVAr   |    MVAr  |
----------------------------------------------------------------------------------------------------------
| 220 | CORUMBA--345 |  0  |   1.051   |  -33.05  |  0.066   |  -0.031  |  0.000   |  0.000   |  0.000   |
----------------------------------------------------------------------------------------------------------
| 225 | ITUMBIARA230 |  0  |   1.016   |  -34.85  |  0.367   |  0.106   |  0.000   |  0.000   |  0.000   |
----------------------------------------------------------------------------------------------------------
| 228 | B.SUL----230 |  0  |   1.013   |  -41.99  |  0.348   |  0.214   |  86.557  |  34.220  |  0.000   |
----------------------------------------------------------------------------------------------------------
| 233 | SAMAMBAI-500 |  0  |   1.036   |  -37.58  |  0.159   |  0.051   |  0.000   |  0.000   |  0.000   |
----------------------------------------------------------------------------------------------------------
| 234 | SAMAMBAI-345 |  0  |   1.024   |  -40.38  |  2.499   |  0.885   | 1006.472 | 352.265  |  0.000   |
----------------------------------------------------------------------------------------------------------
| 300 | EMBORCAC-3GR |  1  |   1.020   |  -20.71  | 698.463  | -166.864 |  0.000   |  0.000   |  0.000   |
----------------------------------------------------------------------------------------------------------
| 301 | JAGUARA--4GR |  1  |   1.010   |  -22.36  | 299.324  | -97.588  |  0.000   |  0.000   |  0.000   |
----------------------------------------------------------------------------------------------------------
| 302 | N.PONTE--3GR |  1  |   1.020   |  -20.57  | 399.289  | -105.847 |  0.000   |  0.000   |  0.000   |
----------------------------------------------------------------------------------------------------------
| 303 | S.SIMAO--4GR |  1  |   1.020   |  -26.53  | 199.462  | -233.549 |  0.000   |  0.000   |  0.000   |
----------------------------------------------------------------------------------------------------------

|          BARRA           |         TENSAO       |        GERACAO      |         CARGA       |   SHUNT  |
| NUM |     NOME     |  T  |    MOD    |    ANG   |    MW    |   MVAr   |    MW    |   MVAr   |    MVAr  |
----------------------------------------------------------------------------------------------------------
| 305 | V.GRANDE-4GR |  1  |   1.000   |  -25.58  | 299.311  |  -7.950  |  0.000   |  0.000   |  0.000   |
----------------------------------------------------------------------------------------------------------
| 320 | EMBORCAC-500 |  0  |   1.046   |  -25.81  |  0.075   |  -0.002  |  0.000   |  0.000   |  0.000   |
----------------------------------------------------------------------------------------------------------
| 325 | JAGUARA--500 |  0  |   1.038   |  -26.67  |  0.109   |  0.037   |  0.000   |  0.000   |  0.000   |
----------------------------------------------------------------------------------------------------------
| 326 | JAGUARA--345 |  0  |   1.020   |  -29.60  |  0.643   |  0.257   | 275.773  | 104.673  |  0.000   |
----------------------------------------------------------------------------------------------------------
| 360 | NPONTE---500 |  0  |   1.043   |  -24.74  |  0.132   |  0.003   |  0.000   |  0.000   |  0.000   |
----------------------------------------------------------------------------------------------------------
| 370 | SSIMAO---500 |  0  |   1.044   |  -27.66  |  -0.014  |  0.036   |  0.000   |  0.000   |  0.000   |
----------------------------------------------------------------------------------------------------------
| 396 | VGRANDE--345 |  0  |   1.029   |  -29.34  |  -0.087  |  0.002   |  0.000   |  0.000   |  0.000   |
----------------------------------------------------------------------------------------------------------
| 500 | A.VERMEL-4GR |  1  |   1.020   |  -24.24  | 798.077  | -17.010  |  0.000   |  0.000   |  0.000   |
----------------------------------------------------------------------------------------------------------
| 535 | AVERMELHA500 |  0  |   1.025   |  -28.73  |  -0.028  |  0.000   |  0.000   |  0.000   |  0.000   |
----------------------------------------------------------------------------------------------------------
| 536 | AVERMELH-440 |  0  |   1.013   |  -31.59  |  1.576   |  0.319   | 704.531  | 150.971  |  0.000   |
----------------------------------------------------------------------------------------------------------
| 1503 | ITAJUBA--500 |  0  |   0.874   |  -62.01  |  0.012   |  -0.083  |  0.000   |  0.000   |  0.000   |
----------------------------------------------------------------------------------------------------------
| 1504 | ITAJUBA--138 |  0  |   0.830   |  -68.00  |  0.417   |  0.131   | 145.938  |  63.408  |  0.000   |
----------------------------------------------------------------------------------------------------------



vv relatorio de barras vv area 3 vv

|          BARRA           |         TENSAO       |        GERACAO      |         CARGA       |   SHUNT  |
| NUM |     NOME     |  T  |    MOD    |    ANG   |    MW    |   MVAr   |    MW    |   MVAr   |    MVAr  |
----------------------------------------------------------------------------------------------------------
| 21  | MANSO----3GR |  1  |   1.000   |  -41.90  | 143.764  | -39.173  |  0.000   |  0.000   |  0.000   |
----------------------------------------------------------------------------------------------------------
| 231 | R.VERDE-230  |  0  |   1.059   |  -44.47  |  1.886   |  0.305   |  90.281  |  32.106  |  0.000   |
----------------------------------------------------------------------------------------------------------
| 4501 | B.PEIXE--230 |  0  |   1.080   |  -50.24  |  2.835   |  0.020   |  31.603  |  7.146   | -52.527  |
----------------------------------------------------------------------------------------------------------
| 4521 | ITIQUIRA-230 |  0  |   1.061   |  -51.28  |  3.675   |  0.285   |  0.000   |  0.000   |  0.000   |
----------------------------------------------------------------------------------------------------------
| 4522 | RONDONOP-230 |  0  |   1.069   |  -53.64  |  3.686   |  0.090   |  0.000   |  0.000   | -22.845  |
----------------------------------------------------------------------------------------------------------

|          BARRA           |         TENSAO       |        GERACAO      |         CARGA       |   SHUNT  |
| NUM |     NOME     |  T  |    MOD    |    ANG   |    MW    |   MVAr   |    MW    |   MVAr   |    MVAr  |
----------------------------------------------------------------------------------------------------------
| 4523 | ITIQUIR--2GR |  1  |   1.010   |  -45.33  |  53.584  | -22.218  |  0.000   |  0.000   |  0.000   |
----------------------------------------------------------------------------------------------------------
| 4530 | COXIPO-CE-12 |  1  |   1.020   |  -54.43  |  3.818   | -27.445  |  0.000   |  0.000   |  0.000   |
----------------------------------------------------------------------------------------------------------
| 4532 |  COXIPO-230  |  0  |   1.058   |  -54.72  |  4.108   |  0.010   |  0.000   |  0.000   |  0.000   |
----------------------------------------------------------------------------------------------------------
| 4533 |  COXIPO-138  |  0  |   1.026   |  -55.03  |  4.273   |  -0.035  |  75.888  |  16.204  |  0.000   |
----------------------------------------------------------------------------------------------------------
| 4542 |  NOBRES-230  |  0  |   1.047   |  -52.14  |  4.315   |  0.017   |  0.000   |  0.000   |  0.000   |
----------------------------------------------------------------------------------------------------------
| 4552 | N.MUTUM-230  |  0  |   1.049   |  -58.07  |  5.086   |  0.092   |  12.682  |  1.208   | -22.013  |
----------------------------------------------------------------------------------------------------------
| 4562 | SORRISO-230  |  0  |   1.069   |  -64.59  |  5.966   |  -0.126  |  23.954  |  7.448   |  0.000   |
----------------------------------------------------------------------------------------------------------
| 4572 | LUCAS-RV230  |  0  |   1.062   |  -62.25  |  5.674   |  -0.023  |  18.117  |  6.441   |  0.000   |
----------------------------------------------------------------------------------------------------------
| 4582 |  SINOP-230   |  0  |   1.079   |  -66.94  |  6.301   |  -0.231  |  65.924  |  16.808  |  34.926  |
----------------------------------------------------------------------------------------------------------
| 4592 |  MANSO-230   |  0  |   1.029   |  -47.03  |  4.109   |  0.024   |  0.000   |  0.000   |  0.000   |
----------------------------------------------------------------------------------------------------------

|          BARRA           |         TENSAO       |        GERACAO      |         CARGA       |   SHUNT  |
| NUM |     NOME     |  T  |    MOD    |    ANG   |    MW    |   MVAr   |    MW    |   MVAr   |    MVAr  |
----------------------------------------------------------------------------------------------------------
| 4596 | CBA--GAS-2GR |  1  |   1.000   |  -50.11  | 233.553  | -58.759  |  0.000   |  0.000   |  0.000   |
----------------------------------------------------------------------------------------------------------
| 4623 | RONDONOP-138 |  0  |   1.052   |  -56.13  |  3.978   |  0.322   | 129.030  |  41.024  |  0.000   |
----------------------------------------------------------------------------------------------------------
| 4703 |  CUIABA-138  |  0  |   1.014   |  -56.09  |  4.596   |  -0.034  | 183.279  |  29.943  |  0.000   |
----------------------------------------------------------------------------------------------------------
| 4804 | GUAPORE--2GR |  1  |   1.000   |  -54.23  |  54.972  | -23.968  |  0.000   |  0.000   |  0.000   |
----------------------------------------------------------------------------------------------------------
| 4805 | GUAPORE--138 |  0  |   1.035   |  -58.30  |  4.987   |  0.128   |  0.000   |  0.000   |  0.000   |
----------------------------------------------------------------------------------------------------------
| 4807 |  JAURU-138   |  0  |   1.036   |  -59.82  |  5.203   |  0.139   | 129.734  |  36.535  |  0.000   |
----------------------------------------------------------------------------------------------------------
| 4862 |  JAURU-230   |  0  |   1.061   |  -58.44  |  4.799   |  0.129   |  0.000   |  0.000   | -33.769  |
----------------------------------------------------------------------------------------------------------



vv relatorio de barras vv area 2 vv

|          BARRA           |         TENSAO       |        GERACAO      |         CARGA       |   SHUNT  |
| NUM |     NOME     |  T  |    MOD    |    ANG   |    MW    |   MVAr   |    MW    |   MVAr   |    MVAr  |
----------------------------------------------------------------------------------------------------------

|          BARRA           |         TENSAO       |        GERACAO      |         CARGA       |   SHUNT  |
| NUM |     NOME     |  T  |    MOD    |    ANG   |    MW    |   MVAr   |    MW    |   MVAr   |    MVAr  |
----------------------------------------------------------------------------------------------------------
| 800 | GBMUNHOZ-2GR |  1  |   1.020   |  +5.03   | 1098.019 | 1480.725 |  0.000   |  0.000   |  0.000   |
----------------------------------------------------------------------------------------------------------
| 808 | SCAXIAS--4GR |  1  |   1.020   |  +15.67  | 1147.793 | 547.214  |  0.000   |  0.000   |  0.000   |
----------------------------------------------------------------------------------------------------------
| 810 | SSEGREDO-4GR |  1  |   1.020   |  +8.13   | 1197.788 | 1139.262 |  0.000   |  0.000   |  0.000   |
----------------------------------------------------------------------------------------------------------
| 814 | BATEIAS--230 |  0  |   0.558   |  -53.50  |  2.479   |  0.846   | 740.160  | 192.236  |  0.000   |
----------------------------------------------------------------------------------------------------------
| 824 | GBMUNHOZ-500 |  0  |   0.816   |  -8.09   |  0.601   |  0.050   |  0.000   |  0.000   |  0.000   |
----------------------------------------------------------------------------------------------------------
| 834 | S.MATEUS-230 |  0  |   0.567   |  -29.55  |  1.259   |  0.374   |  13.487  |  4.227   |  0.000   |
----------------------------------------------------------------------------------------------------------
| 839 | CASCAVEL-230 |  0  |   0.953   |  +5.19   |  0.518   |  0.048   |  0.000   |  0.000   |  0.000   |
----------------------------------------------------------------------------------------------------------
| 840 | CASCAVEL-138 |  0  |   0.939   |  +1.90   |  0.836   |  0.104   | 160.029  |  36.233  |  0.000   |
----------------------------------------------------------------------------------------------------------
| 848 | FCHOPIM--138 |  0  |   0.954   |  +6.20   |  0.827   |  -0.015  |  94.608  |  18.117  |  0.000   |
----------------------------------------------------------------------------------------------------------
| 856 | SEGREDO--500 |  0  |   0.911   |  +0.36   |  0.610   |  -0.017  |  0.000   |  0.000   |  0.000   |
----------------------------------------------------------------------------------------------------------

|          BARRA           |         TENSAO       |        GERACAO      |         CARGA       |   SHUNT  |
| NUM |     NOME     |  T  |    MOD    |    ANG   |    MW    |   MVAr   |    MW    |   MVAr   |    MVAr  |
----------------------------------------------------------------------------------------------------------
| 895 | BATEIAS--500 |  0  |   0.603   |  -46.52  |  0.566   |  0.469   |  0.000   |  0.000   |  0.000   |
----------------------------------------------------------------------------------------------------------
| 896 | CASCAVELO500 |  0  |   0.983   |  +7.51   |  0.569   |  0.009   |  0.000   |  0.000   |  0.000   |
----------------------------------------------------------------------------------------------------------
| 897 | SCAXIAS--500 |  0  |   0.995   |  +8.89   |  0.571   |  -0.011  |  0.000   |  0.000   |  0.000   |
----------------------------------------------------------------------------------------------------------
| 898 | FCHOPIM--230 |  0  |   0.968   |  +9.90   |  0.622   |  0.022   |  0.000   |  0.000   |  0.000   |
----------------------------------------------------------------------------------------------------------
| 904 | ITA------4GR |  1  |   1.020   |  -7.25   | 698.822  | 1266.708 |  0.000   |  0.000   |  0.000   |
----------------------------------------------------------------------------------------------------------
| 915 | MACHADIN-2GR |  1  |   1.020   |  -4.54   | 698.945  | 920.806  |  0.000   |  0.000   |  0.000   |
----------------------------------------------------------------------------------------------------------
| 919 | SOSOR1A4-4GR |  1  |   1.000   |  +18.18  | 699.023  | 340.988  |  0.000   |  0.000   |  0.000   |
----------------------------------------------------------------------------------------------------------
| 925 | SSANTIAG-3GR |  1  |   1.020   |  +11.98  | 948.337  | 666.595  |  0.000   |  0.000   |  0.000   |
----------------------------------------------------------------------------------------------------------
| 933 | AREIA----500 |  0  |   0.808   |  -8.64   |  0.346   |  0.031   |  0.000   |  0.000   |  0.000   |
----------------------------------------------------------------------------------------------------------
| 934 | AREIA----230 |  0  |   0.775   |  -9.05   |  1.193   |  0.181   | 238.534  |  59.382  |  0.000   |
----------------------------------------------------------------------------------------------------------

|          BARRA           |         TENSAO       |        GERACAO      |         CARGA       |   SHUNT  |
| NUM |     NOME     |  T  |    MOD    |    ANG   |    MW    |   MVAr   |    MW    |   MVAr   |    MVAr  |
----------------------------------------------------------------------------------------------------------
| 938 | BLUMENAU-500 |  0  |   0.501   |  -57.19  |  1.017   |  1.053   |  0.000   |  0.000   |  0.000   |
----------------------------------------------------------------------------------------------------------
| 939 | BLUMENAU-230 |  0  |   0.466   |  -67.96  |  4.490   |  1.274   | 1156.437 |  53.403  |  0.000   |
----------------------------------------------------------------------------------------------------------
| 955 | CNOVOS---500 |  0  |   0.772   |  -18.80  |  0.364   |  -0.204  |  0.000   |  0.000   |  0.000   |
----------------------------------------------------------------------------------------------------------
| 959 | CURITIBA-500 |  0  |   0.550   |  -46.85  |  0.633   |  0.704   |  0.000   |  0.000   |  30.205  |
----------------------------------------------------------------------------------------------------------
| 960 | CURITIBA-230 |  0  |   0.476   |  -57.11  |  3.232   |  2.047   | 850.167  | 472.136  |  0.000   |
----------------------------------------------------------------------------------------------------------
| 964 | CAXIAS---500 |  0  |   0.699   |  -33.34  |  -0.155  |  -1.091  |  0.000   |  0.000   |  0.000   |
----------------------------------------------------------------------------------------------------------
| 965 | CAXIAS---230 |  0  |   0.670   |  -38.85  |  1.345   |  -1.008  | 760.491  |  56.604  |  0.000   |
----------------------------------------------------------------------------------------------------------
| 976 | GRAVATAI-500 |  0  |   0.645   |  -39.52  |  -0.447  |  -1.474  |  0.000   |  0.000   |  0.000   |
----------------------------------------------------------------------------------------------------------
| 995 | ITA------500 |  0  |   0.880   |  -12.41  |  0.488   |  -0.342  |  0.000   |  0.000   |  0.000   |
----------------------------------------------------------------------------------------------------------
| 1015 | JOINVILLE230 |  0  |   0.464   |  -67.15  |  1.612   |  1.355   |  70.453  |  2.013   |  0.000   |
----------------------------------------------------------------------------------------------------------

|          BARRA           |         TENSAO       |        GERACAO      |         CARGA       |   SHUNT  |
| NUM |     NOME     |  T  |    MOD    |    ANG   |    MW    |   MVAr   |    MW    |   MVAr   |    MVAr  |
----------------------------------------------------------------------------------------------------------
| 1030 | MACHADIN-500 |  0  |   0.845   |  -14.17  |  0.485   |  -0.220  |  0.000   |  0.000   |  0.000   |
----------------------------------------------------------------------------------------------------------
| 1047 | SOSORIO--230 |  0  |   0.973   |  +10.98  |  0.631   |  0.017   |  0.000   |  0.000   |  0.000   |
----------------------------------------------------------------------------------------------------------
| 1060 | SSANTIAG-500 |  0  |   0.954   |  +3.28   |  0.624   |  -0.070  |  0.000   |  0.000   |  0.000   |
----------------------------------------------------------------------------------------------------------
| 1210 | GRAVATAI-230 |  0  |   0.616   |  -46.59  |  2.035   |  -0.682  | 1235.948 | 427.751  |  0.000   |
----------------------------------------------------------------------------------------------------------
| 2458 | CASCAVELO230 |  0  |   0.955   |  +4.94   |  1.465   |  0.338   | 405.608  | 126.816  |  0.000   |
----------------------------------------------------------------------------------------------------------



fim do relatorio do sistema 107